output/1_QUEB_1/Cargas_BT_DU12_1_QUEB_1.dss
New "Load.BT_233150_M1" bus1="UC233150.1.2.3.4" phases=3 conn=delta model=2 kv=0.38 kw = 1.1985482817419089 pf=0.92 status=variable vmaxpu=1.5 vminpu=0.93 daily="RU8_DU" 
New "Load.BT_233150_M2" bus1="UC233150.1.2.3.4" phases=3 conn=delta model=3 kv=0.38 kw = 1.1985482817419089 pf=0.92 status=variable vmaxpu=1.5 vminpu=0.93 daily="RU8_DU"
 
New "Load.BT_233144_M1" bus1="UC233144.1.2.4" phases=2 conn=delta model=2 kv=0.38 kw = 0.31355600516451637 pf=0.92 status=variable vmaxpu=1.5 vminpu=0.93 daily="RU5_DU" 
New "Load.BT_233144_M2" bus1="UC233144.1.2.4" phases=2 conn=delta model=3 kv=0.38 kw = 0.31355600516451637 pf=0.92 status=variable vmaxpu=1.5 vminpu=0.93 daily="RU5_DU"
 
New "Load.BT_232530_M1" bus1="UC232530.1.2.4" phases=2 conn=delta model=2 kv=0.38 kw = 0.22642151127042473 pf=0.92 status=variable vmaxpu=1.5 vminpu=0.93 daily="RU3_DU" 
New "Load.BT_232530_M2" bus1="UC232530.1.2.4" phases=2 conn=delta model=3 kv=0.38 kw = 0.22642151127042473 pf=0.92 status=variable vmaxpu=1.5 vminpu=0.93 daily="RU3_DU"
 
New "Load.BT_231938_M1" bus1="UC231938.1.4" phases=1 conn=delta model=2 kv=0.22 kw = 0.23851245764934678 pf=0.92 status=variable vmaxpu=1.5 vminpu=0.93 daily="RU6_DU" 
New "Load.BT_231938_M2" bus1="UC231938.1.4" phases=1 conn=delta model=3 kv=0.22 kw = 0.23851245764934678 pf=0.92 status=variable vmaxpu=1.5 vminpu=0.93 daily="RU6_DU"
 
New "Load.BT_2831932_M1" bus1="UC2831932.1.4" phases=1 conn=delta model=2 kv=0.22 kw = 0.02515794569671386 pf=0.92 status=variable vmaxpu=1.5 vminpu=0.93 daily="RU3_DU" 
New "Load.BT_2831932_M2" bus1="UC2831932.1.4" phases=1 conn=delta model=3 kv=0.22 kw = 0.02515794569671386 pf=0.92 status=variable vmaxpu=1.5 vminpu=0.93 daily="RU3_DU"
 
New "Load.BT_231933_M1" bus1="UC231933.1.2.4" phases=2 conn=delta model=2 kv=0.44 kw = 1.4147054406241566 pf=0.92 status=variable vmaxpu=1.5 vminpu=0.93 daily="RU5_DU" 
New "Load.BT_231933_M2" bus1="UC231933.1.2.4" phases=2 conn=delta model=3 kv=0.44 kw = 1.4147054406241566 pf=0.92 status=variable vmaxpu=1.5 vminpu=0.93 daily="RU5_DU"
 
New "Load.BT_2831495_M1" bus1="UC2831495.1.4" phases=1 conn=delta model=2 kv=0.22 kw = 0.09629420594259443 pf=0.92 status=variable vmaxpu=1.5 vminpu=0.93 daily="RU3_DU" 
New "Load.BT_2831495_M2" bus1="UC2831495.1.4" phases=1 conn=delta model=3 kv=0.22 kw = 0.09629420594259443 pf=0.92 status=variable vmaxpu=1.5 vminpu=0.93 daily="RU3_DU"
 
New "Load.BT_2831490_M1" bus1="UC2831490.1.4" phases=1 conn=delta model=2 kv=0.22 kw = 0.2813358923601373 pf=0.92 status=variable vmaxpu=1.5 vminpu=0.93 daily="RU1_DU" 
New "Load.BT_2831490_M2" bus1="UC2831490.1.4" phases=1 conn=delta model=3 kv=0.22 kw = 0.2813358923601373 pf=0.92 status=variable vmaxpu=1.5 vminpu=0.93 daily="RU1_DU"
 
New "Load.BT_231251_M1" bus1="UC231251.3.4" phases=1 conn=delta model=2 kv=0.22 kw = 0.0 pf=0.92 status=variable vmaxpu=1.5 vminpu=0.93 daily="CO3_DU" 
New "Load.BT_231251_M2" bus1="UC231251.3.4" phases=1 conn=delta model=3 kv=0.22 kw = 0.0 pf=0.92 status=variable vmaxpu=1.5 vminpu=0.93 daily="CO3_DU"
 
New "Load.BT_2831192_M1" bus1="UC2831192.1.4" phases=1 conn=delta model=2 kv=0.22 kw = 0.04469498258956178 pf=0.92 status=variable vmaxpu=1.5 vminpu=0.93 daily="RU7_DU" 
New "Load.BT_2831192_M2" bus1="UC2831192.1.4" phases=1 conn=delta model=3 kv=0.22 kw = 0.04469498258956178 pf=0.92 status=variable vmaxpu=1.5 vminpu=0.93 daily="RU7_DU"
 
New "Load.BT_2831188_M1" bus1="UC2831188.1.4" phases=1 conn=delta model=2 kv=0.22 kw = 0.14847107604921927 pf=0.92 status=variable vmaxpu=1.5 vminpu=0.93 daily="PP3_DU" 
New "Load.BT_2831188_M2" bus1="UC2831188.1.4" phases=1 conn=delta model=3 kv=0.22 kw = 0.14847107604921927 pf=0.92 status=variable vmaxpu=1.5 vminpu=0.93 daily="PP3_DU"
 
New "Load.BT_230656_M1" bus1="UC230656.2.4" phases=1 conn=delta model=2 kv=0.22 kw = 0.3744522308344564 pf=0.92 status=variable vmaxpu=1.5 vminpu=0.93 daily="RU2_DU" 
New "Load.BT_230656_M2" bus1="UC230656.2.4" phases=1 conn=delta model=3 kv=0.22 kw = 0.3744522308344564 pf=0.92 status=variable vmaxpu=1.5 vminpu=0.93 daily="RU2_DU"
 
New "Load.BT_2830653_M1" bus1="UC2830653.2.4" phases=1 conn=delta model=2 kv=0.22 kw = 0.3783125631111002 pf=0.92 status=variable vmaxpu=1.5 vminpu=0.93 daily="RU2_DU" 
New "Load.BT_2830653_M2" bus1="UC2830653.2.4" phases=1 conn=delta model=3 kv=0.22 kw = 0.3783125631111002 pf=0.92 status=variable vmaxpu=1.5 vminpu=0.93 daily="RU2_DU"
 
New "Load.BT_230651_M1" bus1="UC230651.1.4" phases=1 conn=delta model=2 kv=0.22 kw = 0.25679111413003164 pf=0.92 status=variable vmaxpu=1.5 vminpu=0.93 daily="RU4_DU" 
New "Load.BT_230651_M2" bus1="UC230651.1.4" phases=1 conn=delta model=3 kv=0.22 kw = 0.25679111413003164 pf=0.92 status=variable vmaxpu=1.5 vminpu=0.93 daily="RU4_DU"
 
New "Load.BT_230555_M1" bus1="UC230555.1.4" phases=1 conn=delta model=2 kv=0.22 kw = 0.006913606918885468 pf=0.92 status=variable vmaxpu=1.5 vminpu=0.93 daily="RU4_DU" 
New "Load.BT_230555_M2" bus1="UC230555.1.4" phases=1 conn=delta model=3 kv=0.22 kw = 0.006913606918885468 pf=0.92 status=variable vmaxpu=1.5 vminpu=0.93 daily="RU4_DU"
 
New "Load.BT_228394_M1" bus1="UC228394.1.4" phases=1 conn=delta model=2 kv=0.22 kw = 0.47280295266932987 pf=0.92 status=variable vmaxpu=1.5 vminpu=0.93 daily="RU5_DU" 
New "Load.BT_228394_M2" bus1="UC228394.1.4" phases=1 conn=delta model=3 kv=0.22 kw = 0.47280295266932987 pf=0.92 status=variable vmaxpu=1.5 vminpu=0.93 daily="RU5_DU"
 
New "Load.BT_228388_M1" bus1="UC228388.1.4" phases=1 conn=delta model=2 kv=0.22 kw = 0.18657541167979108 pf=0.92 status=variable vmaxpu=1.5 vminpu=0.93 daily="RE1_DU" 
New "Load.BT_228388_M2" bus1="UC228388.1.4" phases=1 conn=delta model=3 kv=0.22 kw = 0.18657541167979108 pf=0.92 status=variable vmaxpu=1.5 vminpu=0.93 daily="RE1_DU"
 
New "Load.BT_227082_M1" bus1="UC227082.2.4" phases=1 conn=delta model=2 kv=0.22 kw = 0.015703642531467655 pf=0.92 status=variable vmaxpu=1.5 vminpu=0.93 daily="RU7_DU" 
New "Load.BT_227082_M2" bus1="UC227082.2.4" phases=1 conn=delta model=3 kv=0.22 kw = 0.015703642531467655 pf=0.92 status=variable vmaxpu=1.5 vminpu=0.93 daily="RU7_DU"
 
New "Load.BT_2827937_M1" bus1="UC2827937.1.4" phases=1 conn=delta model=2 kv=0.22 kw = 0.14495670029047064 pf=0.92 status=variable vmaxpu=1.5 vminpu=0.93 daily="RU7_DU" 
New "Load.BT_2827937_M2" bus1="UC2827937.1.4" phases=1 conn=delta model=3 kv=0.22 kw = 0.14495670029047064 pf=0.92 status=variable vmaxpu=1.5 vminpu=0.93 daily="RU7_DU"
 
New "Load.BT_228376_M1" bus1="UC228376.1.4" phases=1 conn=delta model=2 kv=0.22 kw = 0.22716137019195104 pf=0.92 status=variable vmaxpu=1.5 vminpu=0.93 daily="RU4_DU" 
New "Load.BT_228376_M2" bus1="UC228376.1.4" phases=1 conn=delta model=3 kv=0.22 kw = 0.22716137019195104 pf=0.92 status=variable vmaxpu=1.5 vminpu=0.93 daily="RU4_DU"
 
New "Load.BT_226217_M1" bus1="UC226217.1.4" phases=1 conn=delta model=2 kv=0.22 kw = 0.06860848809036628 pf=0.92 status=variable vmaxpu=1.5 vminpu=0.93 daily="RU8_DU" 
New "Load.BT_226217_M2" bus1="UC226217.1.4" phases=1 conn=delta model=3 kv=0.22 kw = 0.06860848809036628 pf=0.92 status=variable vmaxpu=1.5 vminpu=0.93 daily="RU8_DU"
 
New "Load.BT_226224_M1" bus1="UC226224.2.4" phases=1 conn=delta model=2 kv=0.22 kw = 0.10815848063893134 pf=0.92 status=variable vmaxpu=1.5 vminpu=0.93 daily="RE6_DU" 
New "Load.BT_226224_M2" bus1="UC226224.2.4" phases=1 conn=delta model=3 kv=0.22 kw = 0.10815848063893134 pf=0.92 status=variable vmaxpu=1.5 vminpu=0.93 daily="RE6_DU"
 
New "Load.BT_226233_M1" bus1="UC226233.1.2.3.4" phases=3 conn=delta model=2 kv=0.38 kw = 1.0022623657507623 pf=0.92 status=variable vmaxpu=1.5 vminpu=0.93 daily="CO4_DU" 
New "Load.BT_226233_M2" bus1="UC226233.1.2.3.4" phases=3 conn=delta model=3 kv=0.38 kw = 1.0022623657507623 pf=0.92 status=variable vmaxpu=1.5 vminpu=0.93 daily="CO4_DU"
 
New "Load.BT_227077_M1" bus1="UC227077.2.4" phases=1 conn=delta model=2 kv=0.22 kw = 0.2186430229381266 pf=0.92 status=variable vmaxpu=1.5 vminpu=0.93 daily="RU7_DU" 
New "Load.BT_227077_M2" bus1="UC227077.2.4" phases=1 conn=delta model=3 kv=0.22 kw = 0.2186430229381266 pf=0.92 status=variable vmaxpu=1.5 vminpu=0.93 daily="RU7_DU"
 
New "Load.BT_227073_M1" bus1="UC227073.2.4" phases=1 conn=delta model=2 kv=0.22 kw = 0.01648279200819184 pf=0.92 status=variable vmaxpu=1.5 vminpu=0.93 daily="RU3_DU" 
New "Load.BT_227073_M2" bus1="UC227073.2.4" phases=1 conn=delta model=3 kv=0.22 kw = 0.01648279200819184 pf=0.92 status=variable vmaxpu=1.5 vminpu=0.93 daily="RU3_DU"
 
New "Load.BT_2805756_M1" bus1="UC2805756.1.2.3.4" phases=3 conn=delta model=2 kv=0.38 kw = 1.2063538364512123 pf=0.92 status=variable vmaxpu=1.5 vminpu=0.93 daily="RU2_DU" 
New "Load.BT_2805756_M2" bus1="UC2805756.1.2.3.4" phases=3 conn=delta model=3 kv=0.38 kw = 1.2063538364512123 pf=0.92 status=variable vmaxpu=1.5 vminpu=0.93 daily="RU2_DU"
 
New "Load.BT_2805757_M1" bus1="UC2805757.1.2.3.4" phases=3 conn=delta model=2 kv=0.38 kw = 1.634850719158683 pf=0.92 status=variable vmaxpu=1.5 vminpu=0.93 daily="RU2_DU" 
New "Load.BT_2805757_M2" bus1="UC2805757.1.2.3.4" phases=3 conn=delta model=3 kv=0.38 kw = 1.634850719158683 pf=0.92 status=variable vmaxpu=1.5 vminpu=0.93 daily="RU2_DU"
 
New "Load.BT_2819390_M1" bus1="UC2819390.1.4" phases=1 conn=delta model=2 kv=0.22 kw = 0.6188765660396305 pf=0.92 status=variable vmaxpu=1.5 vminpu=0.93 daily="RU8_DU" 
New "Load.BT_2819390_M2" bus1="UC2819390.1.4" phases=1 conn=delta model=3 kv=0.22 kw = 0.6188765660396305 pf=0.92 status=variable vmaxpu=1.5 vminpu=0.93 daily="RU8_DU"
 
New "Load.BT_2819375_M1" bus1="UC2819375.1.4" phases=1 conn=delta model=2 kv=0.22 kw = 0.0 pf=0.92 status=variable vmaxpu=1.5 vminpu=0.93 daily="RU2_DU" 
New "Load.BT_2819375_M2" bus1="UC2819375.1.4" phases=1 conn=delta model=3 kv=0.22 kw = 0.0 pf=0.92 status=variable vmaxpu=1.5 vminpu=0.93 daily="RU2_DU"
 
New "Load.BT_2819355_M1" bus1="UC2819355.1.4" phases=1 conn=delta model=2 kv=0.22 kw = 0.165491701388316 pf=0.92 status=variable vmaxpu=1.5 vminpu=0.93 daily="RU1_DU" 
New "Load.BT_2819355_M2" bus1="UC2819355.1.4" phases=1 conn=delta model=3 kv=0.22 kw = 0.165491701388316 pf=0.92 status=variable vmaxpu=1.5 vminpu=0.93 daily="RU1_DU"
 
New "Load.BT_2822268_M1" bus1="UC2822268.2.4" phases=1 conn=delta model=2 kv=0.22 kw = 0.23625167606025343 pf=0.92 status=variable vmaxpu=1.5 vminpu=0.93 daily="RU6_DU" 
New "Load.BT_2822268_M2" bus1="UC2822268.2.4" phases=1 conn=delta model=3 kv=0.22 kw = 0.23625167606025343 pf=0.92 status=variable vmaxpu=1.5 vminpu=0.93 daily="RU6_DU"
 
New "Load.BT_2806028_M1" bus1="UC2806028.2.4" phases=1 conn=delta model=2 kv=0.22 kw = 0.23512128526570675 pf=0.92 status=variable vmaxpu=1.5 vminpu=0.93 daily="RU6_DU" 
New "Load.BT_2806028_M2" bus1="UC2806028.2.4" phases=1 conn=delta model=3 kv=0.22 kw = 0.23512128526570675 pf=0.92 status=variable vmaxpu=1.5 vminpu=0.93 daily="RU6_DU"
 
New "Load.BT_2806039_M1" bus1="UC2806039.1.2.3.4" phases=3 conn=delta model=2 kv=0.38 kw = 1.1826050798697565 pf=0.92 status=variable vmaxpu=1.5 vminpu=0.93 daily="RU7_DU" 
New "Load.BT_2806039_M2" bus1="UC2806039.1.2.3.4" phases=3 conn=delta model=3 kv=0.38 kw = 1.1826050798697565 pf=0.92 status=variable vmaxpu=1.5 vminpu=0.93 daily="RU7_DU"
 
New "Load.BT_2805793_M1" bus1="UC2805793.2.4" phases=1 conn=delta model=2 kv=0.22 kw = 0.1451857452965948 pf=0.92 status=variable vmaxpu=1.5 vminpu=0.93 daily="RU4_DU" 
New "Load.BT_2805793_M2" bus1="UC2805793.2.4" phases=1 conn=delta model=3 kv=0.22 kw = 0.1451857452965948 pf=0.92 status=variable vmaxpu=1.5 vminpu=0.93 daily="RU4_DU"
 
New "Load.BT_2805784_M1" bus1="UC2805784.1.4" phases=1 conn=delta model=2 kv=0.22 kw = 0.18146745180781065 pf=0.92 status=variable vmaxpu=1.5 vminpu=0.93 daily="RU5_DU" 
New "Load.BT_2805784_M2" bus1="UC2805784.1.4" phases=1 conn=delta model=3 kv=0.22 kw = 0.18146745180781065 pf=0.92 status=variable vmaxpu=1.5 vminpu=0.93 daily="RU5_DU"
 
New "Load.BT_2805785_M1" bus1="UC2805785.1.4" phases=1 conn=delta model=2 kv=0.22 kw = 0.048254153458048496 pf=0.92 status=variable vmaxpu=1.5 vminpu=0.93 daily="RU2_DU" 
New "Load.BT_2805785_M2" bus1="UC2805785.1.4" phases=1 conn=delta model=3 kv=0.22 kw = 0.048254153458048496 pf=0.92 status=variable vmaxpu=1.5 vminpu=0.93 daily="RU2_DU"
 
New "Load.BT_2805790_M1" bus1="UC2805790.2.4" phases=1 conn=delta model=2 kv=0.22 kw = 0.10246121428604274 pf=0.92 status=variable vmaxpu=1.5 vminpu=0.93 daily="RU5_DU" 
New "Load.BT_2805790_M2" bus1="UC2805790.2.4" phases=1 conn=delta model=3 kv=0.22 kw = 0.10246121428604274 pf=0.92 status=variable vmaxpu=1.5 vminpu=0.93 daily="RU5_DU"
 
New "Load.BT_2805782_M1" bus1="UC2805782.2.4" phases=1 conn=delta model=2 kv=0.22 kw = 0.11201385810672043 pf=0.92 status=variable vmaxpu=1.5 vminpu=0.93 daily="RU8_DU" 
New "Load.BT_2805782_M2" bus1="UC2805782.2.4" phases=1 conn=delta model=3 kv=0.22 kw = 0.11201385810672043 pf=0.92 status=variable vmaxpu=1.5 vminpu=0.93 daily="RU8_DU"
 
New "Load.BT_2805766_M1" bus1="UC2805766.2.4" phases=1 conn=delta model=2 kv=0.22 kw = 0.16729783759290676 pf=0.92 status=variable vmaxpu=1.5 vminpu=0.93 daily="RU6_DU" 
New "Load.BT_2805766_M2" bus1="UC2805766.2.4" phases=1 conn=delta model=3 kv=0.22 kw = 0.16729783759290676 pf=0.92 status=variable vmaxpu=1.5 vminpu=0.93 daily="RU6_DU"
 
New "Load.BT_2817050_M1" bus1="UC2817050.2.4" phases=1 conn=delta model=2 kv=0.22 kw = 0.15099656280257362 pf=0.92 status=variable vmaxpu=1.5 vminpu=0.93 daily="RU7_DU" 
New "Load.BT_2817050_M2" bus1="UC2817050.2.4" phases=1 conn=delta model=3 kv=0.22 kw = 0.15099656280257362 pf=0.92 status=variable vmaxpu=1.5 vminpu=0.93 daily="RU7_DU"
 
New "Load.BT_2818311_M1" bus1="UC2818311.2.4" phases=1 conn=delta model=2 kv=0.22 kw = 0.2721534255033935 pf=0.92 status=variable vmaxpu=1.5 vminpu=0.93 daily="RU2_DU" 
New "Load.BT_2818311_M2" bus1="UC2818311.2.4" phases=1 conn=delta model=3 kv=0.22 kw = 0.2721534255033935 pf=0.92 status=variable vmaxpu=1.5 vminpu=0.93 daily="RU2_DU"
 
New "Load.BT_2825858_M1" bus1="UC2825858.2.4" phases=1 conn=delta model=2 kv=0.22 kw = 0.17679080549721407 pf=0.92 status=variable vmaxpu=1.5 vminpu=0.93 daily="RU4_DU" 
New "Load.BT_2825858_M2" bus1="UC2825858.2.4" phases=1 conn=delta model=3 kv=0.22 kw = 0.17679080549721407 pf=0.92 status=variable vmaxpu=1.5 vminpu=0.93 daily="RU4_DU"
 
New "Load.BT_2817028_M1" bus1="UC2817028.1.4" phases=1 conn=delta model=2 kv=0.22 kw = 0.763094408352033 pf=0.92 status=variable vmaxpu=1.5 vminpu=0.93 daily="RU8_DU" 
New "Load.BT_2817028_M2" bus1="UC2817028.1.4" phases=1 conn=delta model=3 kv=0.22 kw = 0.763094408352033 pf=0.92 status=variable vmaxpu=1.5 vminpu=0.93 daily="RU8_DU"
 
New "Load.BT_2817013_M1" bus1="UC2817013.1.4" phases=1 conn=delta model=2 kv=0.22 kw = 0.02168788422130505 pf=0.92 status=variable vmaxpu=1.5 vminpu=0.93 daily="RU3_DU" 
New "Load.BT_2817013_M2" bus1="UC2817013.1.4" phases=1 conn=delta model=3 kv=0.22 kw = 0.02168788422130505 pf=0.92 status=variable vmaxpu=1.5 vminpu=0.93 daily="RU3_DU"
 
New "Load.BT_226211_M1" bus1="UC226211.1.4" phases=1 conn=delta model=2 kv=0.22 kw = 0.31847741282312014 pf=0.92 status=variable vmaxpu=1.5 vminpu=0.93 daily="RU2_DU" 
New "Load.BT_226211_M2" bus1="UC226211.1.4" phases=1 conn=delta model=3 kv=0.22 kw = 0.31847741282312014 pf=0.92 status=variable vmaxpu=1.5 vminpu=0.93 daily="RU2_DU"
 
New "Load.BT_205798_M1" bus1="UC205798.1.4" phases=1 conn=delta model=2 kv=0.22 kw = 0.023454976764274847 pf=0.92 status=variable vmaxpu=1.5 vminpu=0.93 daily="RU5_DU" 
New "Load.BT_205798_M2" bus1="UC205798.1.4" phases=1 conn=delta model=3 kv=0.22 kw = 0.023454976764274847 pf=0.92 status=variable vmaxpu=1.5 vminpu=0.93 daily="RU5_DU"
 
New "Load.BT_221678_M1" bus1="UC221678.1.4" phases=1 conn=delta model=2 kv=0.22 kw = 0.07026874487702837 pf=0.92 status=variable vmaxpu=1.5 vminpu=0.93 daily="RU3_DU" 
New "Load.BT_221678_M2" bus1="UC221678.1.4" phases=1 conn=delta model=3 kv=0.22 kw = 0.07026874487702837 pf=0.92 status=variable vmaxpu=1.5 vminpu=0.93 daily="RU3_DU"
 
New "Load.BT_205762_M1" bus1="UC205762.2.4" phases=1 conn=delta model=2 kv=0.22 kw = 0.49647669849486203 pf=0.92 status=variable vmaxpu=1.5 vminpu=0.93 daily="RU7_DU" 
New "Load.BT_205762_M2" bus1="UC205762.2.4" phases=1 conn=delta model=3 kv=0.22 kw = 0.49647669849486203 pf=0.92 status=variable vmaxpu=1.5 vminpu=0.93 daily="RU7_DU"
 
New "Load.BT_205763_M1" bus1="UC205763.1.2.4" phases=2 conn=delta model=2 kv=0.44 kw = 0.0 pf=0.92 status=variable vmaxpu=1.5 vminpu=0.93 daily="RU5_DU" 
New "Load.BT_205763_M2" bus1="UC205763.1.2.4" phases=2 conn=delta model=3 kv=0.44 kw = 0.0 pf=0.92 status=variable vmaxpu=1.5 vminpu=0.93 daily="RU5_DU"
 
New "Load.BT_205767_M1" bus1="UC205767.1.2.4" phases=2 conn=delta model=2 kv=0.44 kw = 0.30303608371654456 pf=0.92 status=variable vmaxpu=1.5 vminpu=0.93 daily="RU2_DU" 
New "Load.BT_205767_M2" bus1="UC205767.1.2.4" phases=2 conn=delta model=3 kv=0.44 kw = 0.30303608371654456 pf=0.92 status=variable vmaxpu=1.5 vminpu=0.93 daily="RU2_DU"
 
New "Load.BT_221287_M1" bus1="UC221287.1.2.3.4" phases=3 conn=delta model=2 kv=0.38 kw = 0.5114940266553141 pf=0.92 status=variable vmaxpu=1.5 vminpu=0.93 daily="RU2_DU" 
New "Load.BT_221287_M2" bus1="UC221287.1.2.3.4" phases=3 conn=delta model=3 kv=0.38 kw = 0.5114940266553141 pf=0.92 status=variable vmaxpu=1.5 vminpu=0.93 daily="RU2_DU"
 
New "Load.BT_205749_M1" bus1="UC205749.1.2.4" phases=2 conn=delta model=2 kv=0.44 kw = 0.21842702330810485 pf=0.92 status=variable vmaxpu=1.5 vminpu=0.93 daily="RU8_DU" 
New "Load.BT_205749_M2" bus1="UC205749.1.2.4" phases=2 conn=delta model=3 kv=0.44 kw = 0.21842702330810485 pf=0.92 status=variable vmaxpu=1.5 vminpu=0.93 daily="RU8_DU"
 
New "Load.BT_205751_M1" bus1="UC205751.2.4" phases=1 conn=delta model=2 kv=0.22 kw = 0.12246960827739971 pf=0.92 status=variable vmaxpu=1.5 vminpu=0.93 daily="RU4_DU" 
New "Load.BT_205751_M2" bus1="UC205751.2.4" phases=1 conn=delta model=3 kv=0.22 kw = 0.12246960827739971 pf=0.92 status=variable vmaxpu=1.5 vminpu=0.93 daily="RU4_DU"
 
New "Load.BT_205752_M1" bus1="UC205752.1.2.3.4" phases=3 conn=delta model=2 kv=0.38 kw = 0.4077113734203059 pf=0.92 status=variable vmaxpu=1.5 vminpu=0.93 daily="RU1_DU" 
New "Load.BT_205752_M2" bus1="UC205752.1.2.3.4" phases=3 conn=delta model=3 kv=0.38 kw = 0.4077113734203059 pf=0.92 status=variable vmaxpu=1.5 vminpu=0.93 daily="RU1_DU"
 
New "Load.BT_205753_M1" bus1="UC205753.2.4" phases=1 conn=delta model=2 kv=0.22 kw = 0.02535377682090492 pf=0.92 status=variable vmaxpu=1.5 vminpu=0.93 daily="CO6_DU" 
New "Load.BT_205753_M2" bus1="UC205753.2.4" phases=1 conn=delta model=3 kv=0.22 kw = 0.02535377682090492 pf=0.92 status=variable vmaxpu=1.5 vminpu=0.93 daily="CO6_DU"
 
New "Load.BT_205754_M1" bus1="UC205754.1.2.3.4" phases=3 conn=delta model=2 kv=0.38 kw = 0.2660329130034611 pf=0.92 status=variable vmaxpu=1.5 vminpu=0.93 daily="RU8_DU" 
New "Load.BT_205754_M2" bus1="UC205754.1.2.3.4" phases=3 conn=delta model=3 kv=0.38 kw = 0.2660329130034611 pf=0.92 status=variable vmaxpu=1.5 vminpu=0.93 daily="RU8_DU"
 
New "Load.BT_205755_M1" bus1="UC205755.1.4" phases=1 conn=delta model=2 kv=0.22 kw = 0.2038661116802675 pf=0.92 status=variable vmaxpu=1.5 vminpu=0.93 daily="RU3_DU" 
New "Load.BT_205755_M2" bus1="UC205755.1.4" phases=1 conn=delta model=3 kv=0.22 kw = 0.2038661116802675 pf=0.92 status=variable vmaxpu=1.5 vminpu=0.93 daily="RU3_DU"
 
New "Load.BT_205747_M1" bus1="UC205747.1.4" phases=1 conn=delta model=2 kv=0.22 kw = 0.19558110164073714 pf=0.92 status=variable vmaxpu=1.5 vminpu=0.93 daily="RU1_DU" 
New "Load.BT_205747_M2" bus1="UC205747.1.4" phases=1 conn=delta model=3 kv=0.22 kw = 0.19558110164073714 pf=0.92 status=variable vmaxpu=1.5 vminpu=0.93 daily="RU1_DU"
 
New "Load.BT_205746_M1" bus1="UC205746.1.4" phases=1 conn=delta model=2 kv=0.22 kw = 0.011201385810672045 pf=0.92 status=variable vmaxpu=1.5 vminpu=0.93 daily="RU8_DU" 
New "Load.BT_205746_M2" bus1="UC205746.1.4" phases=1 conn=delta model=3 kv=0.22 kw = 0.011201385810672045 pf=0.92 status=variable vmaxpu=1.5 vminpu=0.93 daily="RU8_DU"
 
New "Load.BT_220652_M1" bus1="UC220652.1.4" phases=1 conn=delta model=2 kv=0.22 kw = 0.2135637358010289 pf=0.92 status=variable vmaxpu=1.5 vminpu=0.93 daily="RU5_DU" 
New "Load.BT_220652_M2" bus1="UC220652.1.4" phases=1 conn=delta model=3 kv=0.22 kw = 0.2135637358010289 pf=0.92 status=variable vmaxpu=1.5 vminpu=0.93 daily="RU5_DU"
 
New "Load.BT_221021_M1" bus1="UC221021.1.4" phases=1 conn=delta model=2 kv=0.22 kw = 0.21424844135373533 pf=0.92 status=variable vmaxpu=1.5 vminpu=0.93 daily="RU2_DU" 
New "Load.BT_221021_M2" bus1="UC221021.1.4" phases=1 conn=delta model=3 kv=0.22 kw = 0.21424844135373533 pf=0.92 status=variable vmaxpu=1.5 vminpu=0.93 daily="RU2_DU"
 
New "Load.BT_205739_M1" bus1="UC205739.1.4" phases=1 conn=delta model=2 kv=0.22 kw = 0.49562127103762804 pf=0.92 status=variable vmaxpu=1.5 vminpu=0.93 daily="RE5_DU" 
New "Load.BT_205739_M2" bus1="UC205739.1.4" phases=1 conn=delta model=3 kv=0.22 kw = 0.49562127103762804 pf=0.92 status=variable vmaxpu=1.5 vminpu=0.93 daily="RE5_DU"
 
New "Load.BT_205744_M1" bus1="UC205744.1.2.3.4" phases=3 conn=delta model=2 kv=0.38 kw = 0.10616463166987562 pf=0.92 status=variable vmaxpu=1.5 vminpu=0.93 daily="RU5_DU" 
New "Load.BT_205744_M2" bus1="UC205744.1.2.3.4" phases=3 conn=delta model=3 kv=0.38 kw = 0.10616463166987562 pf=0.92 status=variable vmaxpu=1.5 vminpu=0.93 daily="RU5_DU"
 
New "Load.BT_205745_M1" bus1="UC205745.1.2.3.4" phases=3 conn=delta model=2 kv=0.38 kw = 0.22347491294780894 pf=0.92 status=variable vmaxpu=1.5 vminpu=0.93 daily="RU7_DU" 
New "Load.BT_205745_M2" bus1="UC205745.1.2.3.4" phases=3 conn=delta model=3 kv=0.38 kw = 0.22347491294780894 pf=0.92 status=variable vmaxpu=1.5 vminpu=0.93 daily="RU7_DU"
 
New "Load.BT_205737_M1" bus1="UC205737.2.4" phases=1 conn=delta model=2 kv=0.22 kw = 0.3035059405684297 pf=0.92 status=variable vmaxpu=1.5 vminpu=0.93 daily="RE6_DU" 
New "Load.BT_205737_M2" bus1="UC205737.2.4" phases=1 conn=delta model=3 kv=0.22 kw = 0.3035059405684297 pf=0.92 status=variable vmaxpu=1.5 vminpu=0.93 daily="RE6_DU"
 
New "Load.BT_225866_M1" bus1="UC225866.1.2.3.4" phases=3 conn=delta model=2 kv=0.38 kw = 0.0789438985655504 pf=0.92 status=variable vmaxpu=1.5 vminpu=0.93 daily="RU3_DU" 
New "Load.BT_225866_M2" bus1="UC225866.1.2.3.4" phases=3 conn=delta model=3 kv=0.38 kw = 0.0789438985655504 pf=0.92 status=variable vmaxpu=1.5 vminpu=0.93 daily="RU3_DU"
 
New "Load.BT_228021_M1" bus1="UC228021.2.4" phases=1 conn=delta model=2 kv=0.22 kw = 0.2587664303925704 pf=0.92 status=variable vmaxpu=1.5 vminpu=0.93 daily="RU4_DU" 
New "Load.BT_228021_M2" bus1="UC228021.2.4" phases=1 conn=delta model=3 kv=0.22 kw = 0.2587664303925704 pf=0.92 status=variable vmaxpu=1.5 vminpu=0.93 daily="RU4_DU"
 
New "Load.BT_223629_M1" bus1="UC223629.1.4" phases=1 conn=delta model=2 kv=0.22 kw = 0.058445309682826116 pf=0.92 status=variable vmaxpu=1.5 vminpu=0.93 daily="RE1_DU" 
New "Load.BT_223629_M2" bus1="UC223629.1.4" phases=1 conn=delta model=3 kv=0.22 kw = 0.058445309682826116 pf=0.92 status=variable vmaxpu=1.5 vminpu=0.93 daily="RE1_DU"
 
New "Load.BT_217024_M1" bus1="UC217024.1.4" phases=1 conn=delta model=2 kv=0.22 kw = 0.18965168288003248 pf=0.92 status=variable vmaxpu=1.5 vminpu=0.93 daily="RU7_DU" 
New "Load.BT_217024_M2" bus1="UC217024.1.4" phases=1 conn=delta model=3 kv=0.22 kw = 0.18965168288003248 pf=0.92 status=variable vmaxpu=1.5 vminpu=0.93 daily="RU7_DU"
 
New "Load.BT_223627_M1" bus1="UC223627.2.4" phases=1 conn=delta model=2 kv=0.22 kw = 0.028003464526680108 pf=0.92 status=variable vmaxpu=1.5 vminpu=0.93 daily="RU8_DU" 
New "Load.BT_223627_M2" bus1="UC223627.2.4" phases=1 conn=delta model=3 kv=0.22 kw = 0.028003464526680108 pf=0.92 status=variable vmaxpu=1.5 vminpu=0.93 daily="RU8_DU"
 
New "Load.BT_205672_M1" bus1="UC205672.1.4" phases=1 conn=delta model=2 kv=0.22 kw = 0.06330188449461337 pf=0.92 status=variable vmaxpu=1.5 vminpu=0.93 daily="RU6_DU" 
New "Load.BT_205672_M2" bus1="UC205672.1.4" phases=1 conn=delta model=3 kv=0.22 kw = 0.06330188449461337 pf=0.92 status=variable vmaxpu=1.5 vminpu=0.93 daily="RU6_DU"
 
New "Load.BT_205673_M1" bus1="UC205673.2.4" phases=1 conn=delta model=2 kv=0.22 kw = 0.1935809937287931 pf=0.92 status=variable vmaxpu=1.5 vminpu=0.93 daily="RU4_DU" 
New "Load.BT_205673_M2" bus1="UC205673.2.4" phases=1 conn=delta model=3 kv=0.22 kw = 0.1935809937287931 pf=0.92 status=variable vmaxpu=1.5 vminpu=0.93 daily="RU4_DU"
 
New "Load.BT_205666_M1" bus1="UC205666.1.2.3.4" phases=3 conn=delta model=2 kv=0.38 kw = 2.229341889761841 pf=0.92 status=variable vmaxpu=1.5 vminpu=0.93 daily="RU2_DU" 
New "Load.BT_205666_M2" bus1="UC205666.1.2.3.4" phases=3 conn=delta model=3 kv=0.38 kw = 2.229341889761841 pf=0.92 status=variable vmaxpu=1.5 vminpu=0.93 daily="RU2_DU"
 
New "Load.BT_205668_M1" bus1="UC205668.1.4" phases=1 conn=delta model=2 kv=0.22 kw = 0.5145287443164007 pf=0.92 status=variable vmaxpu=1.5 vminpu=0.93 daily="RU1_DU" 
New "Load.BT_205668_M2" bus1="UC205668.1.4" phases=1 conn=delta model=3 kv=0.22 kw = 0.5145287443164007 pf=0.92 status=variable vmaxpu=1.5 vminpu=0.93 daily="RU1_DU"
 
New "Load.BT_205669_M1" bus1="UC205669.2.4" phases=1 conn=delta model=2 kv=0.22 kw = 0.03383309938523588 pf=0.92 status=variable vmaxpu=1.5 vminpu=0.93 daily="RU3_DU" 
New "Load.BT_205669_M2" bus1="UC205669.2.4" phases=1 conn=delta model=3 kv=0.22 kw = 0.03383309938523588 pf=0.92 status=variable vmaxpu=1.5 vminpu=0.93 daily="RU3_DU"
 
New "Load.BT_205670_M1" bus1="UC205670.2.4" phases=1 conn=delta model=2 kv=0.22 kw = 0.08197562489535624 pf=0.92 status=variable vmaxpu=1.5 vminpu=0.93 daily="RU4_DU" 
New "Load.BT_205670_M2" bus1="UC205670.2.4" phases=1 conn=delta model=3 kv=0.22 kw = 0.08197562489535624 pf=0.92 status=variable vmaxpu=1.5 vminpu=0.93 daily="RU4_DU"
 
New "Load.BT_205671_M1" bus1="UC205671.2.4" phases=1 conn=delta model=2 kv=0.22 kw = 0.21282633040276883 pf=0.92 status=variable vmaxpu=1.5 vminpu=0.93 daily="RU8_DU" 
New "Load.BT_205671_M2" bus1="UC205671.2.4" phases=1 conn=delta model=3 kv=0.22 kw = 0.21282633040276883 pf=0.92 status=variable vmaxpu=1.5 vminpu=0.93 daily="RU8_DU"
 
New "Load.BT_206078_M1" bus1="UC206078.1.4" phases=1 conn=delta model=2 kv=0.22 kw = 0.1504470012621055 pf=0.92 status=variable vmaxpu=1.5 vminpu=0.93 daily="RU1_DU" 
New "Load.BT_206078_M2" bus1="UC206078.1.4" phases=1 conn=delta model=3 kv=0.22 kw = 0.1504470012621055 pf=0.92 status=variable vmaxpu=1.5 vminpu=0.93 daily="RU1_DU"
 
New "Load.BT_206080_M1" bus1="UC206080.2.4" phases=1 conn=delta model=2 kv=0.22 kw = 0.4029645175578958 pf=0.92 status=variable vmaxpu=1.5 vminpu=0.93 daily="RU4_DU" 
New "Load.BT_206080_M2" bus1="UC206080.2.4" phases=1 conn=delta model=3 kv=0.22 kw = 0.4029645175578958 pf=0.92 status=variable vmaxpu=1.5 vminpu=0.93 daily="RU4_DU"
 
New "Load.BT_205662_M1" bus1="UC205662.1.4" phases=1 conn=delta model=2 kv=0.22 kw = 0.4804160876823335 pf=0.92 status=variable vmaxpu=1.5 vminpu=0.93 daily="RU6_DU" 
New "Load.BT_205662_M2" bus1="UC205662.1.4" phases=1 conn=delta model=3 kv=0.22 kw = 0.4804160876823335 pf=0.92 status=variable vmaxpu=1.5 vminpu=0.93 daily="RU6_DU"
 
New "Load.BT_205664_M1" bus1="UC205664.1.2.4" phases=2 conn=delta model=2 kv=0.44 kw = 0.06766619877047177 pf=0.92 status=variable vmaxpu=1.5 vminpu=0.93 daily="RU3_DU" 
New "Load.BT_205664_M2" bus1="UC205664.1.2.4" phases=2 conn=delta model=3 kv=0.44 kw = 0.06766619877047177 pf=0.92 status=variable vmaxpu=1.5 vminpu=0.93 daily="RU3_DU"
 
New "Load.BT_205655_M1" bus1="UC205655.1.4" phases=1 conn=delta model=2 kv=0.22 kw = 0.26417710671341144 pf=0.92 status=variable vmaxpu=1.5 vminpu=0.93 daily="RU5_DU" 
New "Load.BT_205655_M2" bus1="UC205655.1.4" phases=1 conn=delta model=3 kv=0.22 kw = 0.26417710671341144 pf=0.92 status=variable vmaxpu=1.5 vminpu=0.93 daily="RU5_DU"
 
New "Load.BT_205658_M1" bus1="UC205658.1.4" phases=1 conn=delta model=2 kv=0.22 kw = 0.2123464982229108 pf=0.92 status=variable vmaxpu=1.5 vminpu=0.93 daily="RU4_DU" 
New "Load.BT_205658_M2" bus1="UC205658.1.4" phases=1 conn=delta model=3 kv=0.22 kw = 0.2123464982229108 pf=0.92 status=variable vmaxpu=1.5 vminpu=0.93 daily="RU4_DU"
 
New "Load.BT_205659_M1" bus1="UC205659.1.2.3.4" phases=3 conn=delta model=2 kv=0.38 kw = 0.2270988304550707 pf=0.92 status=variable vmaxpu=1.5 vminpu=0.93 daily="RU7_DU" 
New "Load.BT_205659_M2" bus1="UC205659.1.2.3.4" phases=3 conn=delta model=3 kv=0.38 kw = 0.2270988304550707 pf=0.92 status=variable vmaxpu=1.5 vminpu=0.93 daily="RU7_DU"
 
New "Load.BT_206061_M1" bus1="UC206061.1.4" phases=1 conn=delta model=2 kv=0.22 kw = 0.04740759030092891 pf=0.92 status=variable vmaxpu=1.5 vminpu=0.93 daily="RU4_DU" 
New "Load.BT_206061_M2" bus1="UC206061.1.4" phases=1 conn=delta model=3 kv=0.22 kw = 0.04740759030092891 pf=0.92 status=variable vmaxpu=1.5 vminpu=0.93 daily="RU4_DU"
 
New "Load.BT_205649_M1" bus1="UC205649.1.2.3.4" phases=3 conn=delta model=2 kv=0.38 kw = 0.34960869364743746 pf=0.92 status=variable vmaxpu=1.5 vminpu=0.93 daily="RU3_DU" 
New "Load.BT_205649_M2" bus1="UC205649.1.2.3.4" phases=3 conn=delta model=3 kv=0.38 kw = 0.34960869364743746 pf=0.92 status=variable vmaxpu=1.5 vminpu=0.93 daily="RU3_DU"
 
New "Load.BT_205650_M1" bus1="UC205650.1.4" phases=1 conn=delta model=2 kv=0.22 kw = 0.1345165045510534 pf=0.92 status=variable vmaxpu=1.5 vminpu=0.93 daily="RU6_DU" 
New "Load.BT_205650_M2" bus1="UC205650.1.4" phases=1 conn=delta model=3 kv=0.22 kw = 0.1345165045510534 pf=0.92 status=variable vmaxpu=1.5 vminpu=0.93 daily="RU6_DU"
 
New "Load.BT_205651_M1" bus1="UC205651.1.2.3.4" phases=3 conn=delta model=2 kv=0.38 kw = 0.6474732612974355 pf=0.92 status=variable vmaxpu=1.5 vminpu=0.93 daily="RU7_DU" 
New "Load.BT_205651_M2" bus1="UC205651.1.2.3.4" phases=3 conn=delta model=3 kv=0.38 kw = 0.6474732612974355 pf=0.92 status=variable vmaxpu=1.5 vminpu=0.93 daily="RU7_DU"
 
New "Load.BT_205653_M1" bus1="UC205653.1.2.3.4" phases=3 conn=delta model=2 kv=0.38 kw = 0.03920485033735215 pf=0.92 status=variable vmaxpu=1.5 vminpu=0.93 daily="RU8_DU" 
New "Load.BT_205653_M2" bus1="UC205653.1.2.3.4" phases=3 conn=delta model=3 kv=0.38 kw = 0.03920485033735215 pf=0.92 status=variable vmaxpu=1.5 vminpu=0.93 daily="RU8_DU"
 
New "Load.BT_205654_M1" bus1="UC205654.1.4" phases=1 conn=delta model=2 kv=0.22 kw = 0.9297624677998119 pf=0.92 status=variable vmaxpu=1.5 vminpu=0.93 daily="RU1_DU" 
New "Load.BT_205654_M2" bus1="UC205654.1.4" phases=1 conn=delta model=3 kv=0.22 kw = 0.9297624677998119 pf=0.92 status=variable vmaxpu=1.5 vminpu=0.93 daily="RU1_DU"
 
New "Load.BT_205648_M1" bus1="UC205648.1.4" phases=1 conn=delta model=2 kv=0.22 kw = 0.1665629508196228 pf=0.92 status=variable vmaxpu=1.5 vminpu=0.93 daily="RU3_DU" 
New "Load.BT_205648_M2" bus1="UC205648.1.4" phases=1 conn=delta model=3 kv=0.22 kw = 0.1665629508196228 pf=0.92 status=variable vmaxpu=1.5 vminpu=0.93 daily="RU3_DU"
 
New "Load.BT_205645_M1" bus1="UC205645.2.4" phases=1 conn=delta model=2 kv=0.22 kw = 0.1218150706910585 pf=0.92 status=variable vmaxpu=1.5 vminpu=0.93 daily="RU8_DU" 
New "Load.BT_205645_M2" bus1="UC205645.2.4" phases=1 conn=delta model=3 kv=0.22 kw = 0.1218150706910585 pf=0.92 status=variable vmaxpu=1.5 vminpu=0.93 daily="RU8_DU"
 
New "Load.BT_222266_M1" bus1="UC222266.2.4" phases=1 conn=delta model=2 kv=0.22 kw = 0.23355010273695473 pf=0.92 status=variable vmaxpu=1.5 vminpu=0.93 daily="RU2_DU" 
New "Load.BT_222266_M2" bus1="UC222266.2.4" phases=1 conn=delta model=3 kv=0.22 kw = 0.23355010273695473 pf=0.92 status=variable vmaxpu=1.5 vminpu=0.93 daily="RU2_DU"
 
New "Load.BT_205731_M1" bus1="UC205731.1.4" phases=1 conn=delta model=2 kv=0.22 kw = 0.08105387716802434 pf=0.92 status=variable vmaxpu=1.5 vminpu=0.93 daily="CO4_DU" 
New "Load.BT_205731_M2" bus1="UC205731.1.4" phases=1 conn=delta model=3 kv=0.22 kw = 0.08105387716802434 pf=0.92 status=variable vmaxpu=1.5 vminpu=0.93 daily="CO4_DU"
 
New "Load.BT_205734_M1" bus1="UC205734.1.2.4" phases=2 conn=delta model=2 kv=0.44 kw = 0.44453388089077667 pf=0.92 status=variable vmaxpu=1.5 vminpu=0.93 daily="RU7_DU" 
New "Load.BT_205734_M2" bus1="UC205734.1.2.4" phases=2 conn=delta model=3 kv=0.44 kw = 0.44453388089077667 pf=0.92 status=variable vmaxpu=1.5 vminpu=0.93 daily="RU7_DU"
 
New "Load.BT_219392_M1" bus1="UC219392.1.4" phases=1 conn=delta model=2 kv=0.22 kw = 0.13225572296196003 pf=0.92 status=variable vmaxpu=1.5 vminpu=0.93 daily="RU6_DU" 
New "Load.BT_219392_M2" bus1="UC219392.1.4" phases=1 conn=delta model=3 kv=0.22 kw = 0.13225572296196003 pf=0.92 status=variable vmaxpu=1.5 vminpu=0.93 daily="RU6_DU"
 
New "Load.BT_219394_M1" bus1="UC219394.1.4" phases=1 conn=delta model=2 kv=0.22 kw = 0.42270638429250484 pf=0.92 status=variable vmaxpu=1.5 vminpu=0.93 daily="RU2_DU" 
New "Load.BT_219394_M2" bus1="UC219394.1.4" phases=1 conn=delta model=3 kv=0.22 kw = 0.42270638429250484 pf=0.92 status=variable vmaxpu=1.5 vminpu=0.93 daily="RU2_DU"
 
New "Load.BT_219377_M1" bus1="UC219377.1.2.4" phases=2 conn=delta model=2 kv=0.44 kw = 3.565006177756884 pf=0.92 status=variable vmaxpu=1.5 vminpu=0.93 daily="PP7_DU" 
New "Load.BT_219377_M2" bus1="UC219377.1.2.4" phases=2 conn=delta model=3 kv=0.44 kw = 3.565006177756884 pf=0.92 status=variable vmaxpu=1.5 vminpu=0.93 daily="PP7_DU"
 
New "Load.BT_219381_M1" bus1="UC219381.1.4" phases=1 conn=delta model=2 kv=0.22 kw = 0.07026874487702837 pf=0.92 status=variable vmaxpu=1.5 vminpu=0.93 daily="RU3_DU" 
New "Load.BT_219381_M2" bus1="UC219381.1.4" phases=1 conn=delta model=3 kv=0.22 kw = 0.07026874487702837 pf=0.92 status=variable vmaxpu=1.5 vminpu=0.93 daily="RU3_DU"
 
New "Load.BT_219384_M1" bus1="UC219384.1.4" phases=1 conn=delta model=2 kv=0.22 kw = 0.10410184426226425 pf=0.92 status=variable vmaxpu=1.5 vminpu=0.93 daily="RU3_DU" 
New "Load.BT_219384_M2" bus1="UC219384.1.4" phases=1 conn=delta model=3 kv=0.22 kw = 0.10410184426226425 pf=0.92 status=variable vmaxpu=1.5 vminpu=0.93 daily="RU3_DU"
 
New "Load.BT_225587_M1" bus1="UC225587.1.4" phases=1 conn=delta model=2 kv=0.22 kw = 0.12492221311471711 pf=0.92 status=variable vmaxpu=1.5 vminpu=0.93 daily="RU3_DU" 
New "Load.BT_225587_M2" bus1="UC225587.1.4" phases=1 conn=delta model=3 kv=0.22 kw = 0.12492221311471711 pf=0.92 status=variable vmaxpu=1.5 vminpu=0.93 daily="RU3_DU"
 
New "Load.BT_205729_M1" bus1="UC205729.1.2.4" phases=2 conn=delta model=2 kv=0.44 kw = 0.14242924011288005 pf=0.92 status=variable vmaxpu=1.5 vminpu=0.93 daily="RU6_DU" 
New "Load.BT_205729_M2" bus1="UC205729.1.2.4" phases=2 conn=delta model=3 kv=0.44 kw = 0.14242924011288005 pf=0.92 status=variable vmaxpu=1.5 vminpu=0.93 daily="RU6_DU"
 
New "Load.BT_205730_M1" bus1="UC205730.2.4" phases=1 conn=delta model=2 kv=0.22 kw = 0.18622303910242274 pf=0.92 status=variable vmaxpu=1.5 vminpu=0.93 daily="RU8_DU" 
New "Load.BT_205730_M2" bus1="UC205730.2.4" phases=1 conn=delta model=3 kv=0.22 kw = 0.18622303910242274 pf=0.92 status=variable vmaxpu=1.5 vminpu=0.93 daily="RU8_DU"
 
New "Load.BT_205717_M1" bus1="UC205717.1.2.3.4" phases=3 conn=delta model=2 kv=0.38 kw = 0.06332862192621075 pf=0.92 status=variable vmaxpu=1.5 vminpu=0.93 daily="RU3_DU" 
New "Load.BT_205717_M2" bus1="UC205717.1.2.3.4" phases=3 conn=delta model=3 kv=0.38 kw = 0.06332862192621075 pf=0.92 status=variable vmaxpu=1.5 vminpu=0.93 daily="RU3_DU"
 
New "Load.BT_205719_M1" bus1="UC205719.2.4" phases=1 conn=delta model=2 kv=0.22 kw = 0.0 pf=0.92 status=variable vmaxpu=1.5 vminpu=0.93 daily="RE6_DU" 
New "Load.BT_205719_M2" bus1="UC205719.2.4" phases=1 conn=delta model=3 kv=0.22 kw = 0.0 pf=0.92 status=variable vmaxpu=1.5 vminpu=0.93 daily="RE6_DU"
 
New "Load.BT_205722_M1" bus1="UC205722.1.2.3.4" phases=3 conn=delta model=2 kv=0.38 kw = 0.10930693647537747 pf=0.92 status=variable vmaxpu=1.5 vminpu=0.93 daily="RU3_DU" 
New "Load.BT_205722_M2" bus1="UC205722.1.2.3.4" phases=3 conn=delta model=3 kv=0.38 kw = 0.10930693647537747 pf=0.92 status=variable vmaxpu=1.5 vminpu=0.93 daily="RU3_DU"
 
New "Load.BT_205727_M1" bus1="UC205727.1.4" phases=1 conn=delta model=2 kv=0.22 kw = 0.12221277366648473 pf=0.92 status=variable vmaxpu=1.5 vminpu=0.93 daily="RU5_DU" 
New "Load.BT_205727_M2" bus1="UC205727.1.4" phases=1 conn=delta model=3 kv=0.22 kw = 0.12221277366648473 pf=0.92 status=variable vmaxpu=1.5 vminpu=0.93 daily="RU5_DU"
 
New "Load.BT_205710_M1" bus1="UC205710.1.2.3.4" phases=3 conn=delta model=2 kv=0.38 kw = 0.22989157274583355 pf=0.92 status=variable vmaxpu=1.5 vminpu=0.93 daily="RU3_DU" 
New "Load.BT_205710_M2" bus1="UC205710.1.2.3.4" phases=3 conn=delta model=3 kv=0.38 kw = 0.22989157274583355 pf=0.92 status=variable vmaxpu=1.5 vminpu=0.93 daily="RU3_DU"
 
New "Load.BT_205711_M1" bus1="UC205711.2.4" phases=1 conn=delta model=2 kv=0.22 kw = 0.16665378227247918 pf=0.92 status=variable vmaxpu=1.5 vminpu=0.93 daily="RU5_DU" 
New "Load.BT_205711_M2" bus1="UC205711.2.4" phases=1 conn=delta model=3 kv=0.22 kw = 0.16665378227247918 pf=0.92 status=variable vmaxpu=1.5 vminpu=0.93 daily="RU5_DU"
 
New "Load.BT_205713_M1" bus1="UC205713.2.4" phases=1 conn=delta model=2 kv=0.22 kw = 0.2073361731556763 pf=0.92 status=variable vmaxpu=1.5 vminpu=0.93 daily="RU3_DU" 
New "Load.BT_205713_M2" bus1="UC205713.2.4" phases=1 conn=delta model=3 kv=0.22 kw = 0.2073361731556763 pf=0.92 status=variable vmaxpu=1.5 vminpu=0.93 daily="RU3_DU"
 
New "Load.BT_219351_M1" bus1="UC219351.2.4" phases=1 conn=delta model=2 kv=0.22 kw = 0.1594523703195177 pf=0.92 status=variable vmaxpu=1.5 vminpu=0.93 daily="RU7_DU" 
New "Load.BT_219351_M2" bus1="UC219351.2.4" phases=1 conn=delta model=3 kv=0.22 kw = 0.1594523703195177 pf=0.92 status=variable vmaxpu=1.5 vminpu=0.93 daily="RU7_DU"
 
New "Load.BT_219353_M1" bus1="UC219353.2.4" phases=1 conn=delta model=2 kv=0.22 kw = 0.22717497190577926 pf=0.92 status=variable vmaxpu=1.5 vminpu=0.93 daily="RU1_DU" 
New "Load.BT_219353_M2" bus1="UC219353.2.4" phases=1 conn=delta model=3 kv=0.22 kw = 0.22717497190577926 pf=0.92 status=variable vmaxpu=1.5 vminpu=0.93 daily="RU1_DU"
 
New "Load.BT_219354_M1" bus1="UC219354.1.4" phases=1 conn=delta model=2 kv=0.22 kw = 0.10060478071465337 pf=0.92 status=variable vmaxpu=1.5 vminpu=0.93 daily="RU6_DU" 
New "Load.BT_219354_M2" bus1="UC219354.1.4" phases=1 conn=delta model=3 kv=0.22 kw = 0.10060478071465337 pf=0.92 status=variable vmaxpu=1.5 vminpu=0.93 daily="RU6_DU"
 
New "Load.BT_219361_M1" bus1="UC219361.1.2.3.4" phases=3 conn=delta model=2 kv=0.38 kw = 3.32337425787991 pf=0.92 status=variable vmaxpu=1.5 vminpu=0.93 daily="RU1_DU" 
New "Load.BT_219361_M2" bus1="UC219361.1.2.3.4" phases=3 conn=delta model=3 kv=0.38 kw = 3.32337425787991 pf=0.92 status=variable vmaxpu=1.5 vminpu=0.93 daily="RU1_DU"
 
New "Load.BT_219363_M1" bus1="UC219363.2.4" phases=1 conn=delta model=2 kv=0.22 kw = 0.07653729259921266 pf=0.92 status=variable vmaxpu=1.5 vminpu=0.93 daily="RU5_DU" 
New "Load.BT_219363_M2" bus1="UC219363.2.4" phases=1 conn=delta model=3 kv=0.22 kw = 0.07653729259921266 pf=0.92 status=variable vmaxpu=1.5 vminpu=0.93 daily="RU5_DU"
 
New "Load.BT_205709_M1" bus1="UC205709.1.4" phases=1 conn=delta model=2 kv=0.22 kw = 0.052050922131132125 pf=0.92 status=variable vmaxpu=1.5 vminpu=0.93 daily="RU3_DU" 
New "Load.BT_205709_M2" bus1="UC205709.1.4" phases=1 conn=delta model=3 kv=0.22 kw = 0.052050922131132125 pf=0.92 status=variable vmaxpu=1.5 vminpu=0.93 daily="RU3_DU"
 
New "Load.BT_225590_M1" bus1="UC225590.2.4" phases=1 conn=delta model=2 kv=0.22 kw = 0.07287129098358497 pf=0.92 status=variable vmaxpu=1.5 vminpu=0.93 daily="RU3_DU" 
New "Load.BT_225590_M2" bus1="UC225590.2.4" phases=1 conn=delta model=3 kv=0.22 kw = 0.07287129098358497 pf=0.92 status=variable vmaxpu=1.5 vminpu=0.93 daily="RU3_DU"
 
New "Load.BT_225591_M1" bus1="UC225591.1.4" phases=1 conn=delta model=2 kv=0.22 kw = 0.046845829918018916 pf=0.92 status=variable vmaxpu=1.5 vminpu=0.93 daily="RU3_DU" 
New "Load.BT_225591_M2" bus1="UC225591.1.4" phases=1 conn=delta model=3 kv=0.22 kw = 0.046845829918018916 pf=0.92 status=variable vmaxpu=1.5 vminpu=0.93 daily="RU3_DU"
 
New "Load.BT_225591_M1" bus1="UC225591.1.4" phases=1 conn=delta model=2 kv=0.22 kw = 0.10963005257089811 pf=0.92 status=variable vmaxpu=1.5 vminpu=0.93 daily="RU4_DU" 
New "Load.BT_225591_M2" bus1="UC225591.1.4" phases=1 conn=delta model=3 kv=0.22 kw = 0.10963005257089811 pf=0.92 status=variable vmaxpu=1.5 vminpu=0.93 daily="RU4_DU"
 
New "Load.BT_225593_M1" bus1="UC225593.2.4" phases=1 conn=delta model=2 kv=0.22 kw = 0.17529508950142253 pf=0.92 status=variable vmaxpu=1.5 vminpu=0.93 daily="RU5_DU" 
New "Load.BT_225593_M2" bus1="UC225593.2.4" phases=1 conn=delta model=3 kv=0.22 kw = 0.17529508950142253 pf=0.92 status=variable vmaxpu=1.5 vminpu=0.93 daily="RU5_DU"
 
New "Load.BT_205706_M1" bus1="UC205706.1.2.4" phases=2 conn=delta model=2 kv=0.44 kw = 0.2786344720404671 pf=0.92 status=variable vmaxpu=1.5 vminpu=0.93 daily="RU8_DU" 
New "Load.BT_205706_M2" bus1="UC205706.1.2.4" phases=2 conn=delta model=3 kv=0.44 kw = 0.2786344720404671 pf=0.92 status=variable vmaxpu=1.5 vminpu=0.93 daily="RU8_DU"
 
New "Load.BT_205707_M1" bus1="UC205707.1.4" phases=1 conn=delta model=2 kv=0.22 kw = 0.002949756477799059 pf=0.92 status=variable vmaxpu=1.5 vminpu=0.93 daily="CO3_DU" 
New "Load.BT_205707_M2" bus1="UC205707.1.4" phases=1 conn=delta model=3 kv=0.22 kw = 0.002949756477799059 pf=0.92 status=variable vmaxpu=1.5 vminpu=0.93 daily="CO3_DU"
 
New "Load.BT_225285_M1" bus1="UC225285.1.4" phases=1 conn=delta model=2 kv=0.22 kw = 0.2528517641201741 pf=0.92 status=variable vmaxpu=1.5 vminpu=0.93 daily="RU2_DU" 
New "Load.BT_225285_M2" bus1="UC225285.1.4" phases=1 conn=delta model=3 kv=0.22 kw = 0.2528517641201741 pf=0.92 status=variable vmaxpu=1.5 vminpu=0.93 daily="RU2_DU"
 
New "Load.BT_225286_M1" bus1="UC225286.1.4" phases=1 conn=delta model=2 kv=0.22 kw = 0.0 pf=0.92 status=variable vmaxpu=1.5 vminpu=0.93 daily="RU7_DU" 
New "Load.BT_225286_M2" bus1="UC225286.1.4" phases=1 conn=delta model=3 kv=0.22 kw = 0.0 pf=0.92 status=variable vmaxpu=1.5 vminpu=0.93 daily="RU7_DU"
 
New "Load.BT_225289_M1" bus1="UC225289.1.4" phases=1 conn=delta model=2 kv=0.22 kw = 0.20246991691021726 pf=0.92 status=variable vmaxpu=1.5 vminpu=0.93 daily="RU4_DU" 
New "Load.BT_225289_M2" bus1="UC225289.1.4" phases=1 conn=delta model=3 kv=0.22 kw = 0.20246991691021726 pf=0.92 status=variable vmaxpu=1.5 vminpu=0.93 daily="RU4_DU"
 
New "Load.BT_225290_M1" bus1="UC225290.2.4" phases=1 conn=delta model=2 kv=0.22 kw = 0.09716172131144662 pf=0.92 status=variable vmaxpu=1.5 vminpu=0.93 daily="RU3_DU" 
New "Load.BT_225290_M2" bus1="UC225290.2.4" phases=1 conn=delta model=3 kv=0.22 kw = 0.09716172131144662 pf=0.92 status=variable vmaxpu=1.5 vminpu=0.93 daily="RU3_DU"
 
New "Load.BT_205695_M1" bus1="UC205695.1.4" phases=1 conn=delta model=2 kv=0.22 kw = 0.32904070818849135 pf=0.92 status=variable vmaxpu=1.5 vminpu=0.93 daily="RU8_DU" 
New "Load.BT_205695_M2" bus1="UC205695.1.4" phases=1 conn=delta model=3 kv=0.22 kw = 0.32904070818849135 pf=0.92 status=variable vmaxpu=1.5 vminpu=0.93 daily="RU8_DU"
 
New "Load.BT_205699_M1" bus1="UC205699.1.4" phases=1 conn=delta model=2 kv=0.22 kw = 0.0 pf=0.92 status=variable vmaxpu=1.5 vminpu=0.93 daily="RU8_DU" 
New "Load.BT_205699_M2" bus1="UC205699.1.4" phases=1 conn=delta model=3 kv=0.22 kw = 0.0 pf=0.92 status=variable vmaxpu=1.5 vminpu=0.93 daily="RU8_DU"
 
New "Load.BT_205700_M1" bus1="UC205700.1.4" phases=1 conn=delta model=2 kv=0.22 kw = 0.38021751807350807 pf=0.92 status=variable vmaxpu=1.5 vminpu=0.93 daily="RU5_DU" 
New "Load.BT_205700_M2" bus1="UC205700.1.4" phases=1 conn=delta model=3 kv=0.22 kw = 0.38021751807350807 pf=0.92 status=variable vmaxpu=1.5 vminpu=0.93 daily="RU5_DU"
 
New "Load.BT_205703_M1" bus1="UC205703.1.4" phases=1 conn=delta model=2 kv=0.22 kw = 0.0015044700126210547 pf=0.92 status=variable vmaxpu=1.5 vminpu=0.93 daily="RU1_DU" 
New "Load.BT_205703_M2" bus1="UC205703.1.4" phases=1 conn=delta model=3 kv=0.22 kw = 0.0015044700126210547 pf=0.92 status=variable vmaxpu=1.5 vminpu=0.93 daily="RU1_DU"
 
New "Load.BT_218342_M1" bus1="UC218342.1.4" phases=1 conn=delta model=2 kv=0.22 kw = 0.09481518060185783 pf=0.92 status=variable vmaxpu=1.5 vminpu=0.93 daily="RU4_DU" 
New "Load.BT_218342_M2" bus1="UC218342.1.4" phases=1 conn=delta model=3 kv=0.22 kw = 0.09481518060185783 pf=0.92 status=variable vmaxpu=1.5 vminpu=0.93 daily="RU4_DU"
 
New "Load.BT_224968_M1" bus1="UC224968.2.4" phases=1 conn=delta model=2 kv=0.22 kw = 0.2632822522086846 pf=0.92 status=variable vmaxpu=1.5 vminpu=0.93 daily="RU1_DU" 
New "Load.BT_224968_M2" bus1="UC224968.2.4" phases=1 conn=delta model=3 kv=0.22 kw = 0.2632822522086846 pf=0.92 status=variable vmaxpu=1.5 vminpu=0.93 daily="RU1_DU"
 
New "Load.BT_225281_M1" bus1="UC225281.1.4" phases=1 conn=delta model=2 kv=0.22 kw = 0.13685358774721923 pf=0.92 status=variable vmaxpu=1.5 vminpu=0.93 daily="RE6_DU" 
New "Load.BT_225281_M2" bus1="UC225281.1.4" phases=1 conn=delta model=3 kv=0.22 kw = 0.13685358774721923 pf=0.92 status=variable vmaxpu=1.5 vminpu=0.93 daily="RE6_DU"
 
New "Load.BT_218304_M1" bus1="UC218304.1.2.3.4" phases=3 conn=delta model=2 kv=0.38 kw = 0.1630762878267795 pf=0.92 status=variable vmaxpu=1.5 vminpu=0.93 daily="RU7_DU" 
New "Load.BT_218304_M2" bus1="UC218304.1.2.3.4" phases=3 conn=delta model=3 kv=0.38 kw = 0.1630762878267795 pf=0.92 status=variable vmaxpu=1.5 vminpu=0.93 daily="RU7_DU"
 
New "Load.BT_218305_M1" bus1="UC218305.3.4" phases=1 conn=delta model=2 kv=0.22 kw = 0.23469732196888454 pf=0.92 status=variable vmaxpu=1.5 vminpu=0.93 daily="RU1_DU" 
New "Load.BT_218305_M2" bus1="UC218305.3.4" phases=1 conn=delta model=3 kv=0.22 kw = 0.23469732196888454 pf=0.92 status=variable vmaxpu=1.5 vminpu=0.93 daily="RU1_DU"
 
New "Load.BT_218309_M1" bus1="UC218309.1.4" phases=1 conn=delta model=2 kv=0.22 kw = 0.2241660318805372 pf=0.92 status=variable vmaxpu=1.5 vminpu=0.93 daily="RU1_DU" 
New "Load.BT_218309_M2" bus1="UC218309.1.4" phases=1 conn=delta model=3 kv=0.22 kw = 0.2241660318805372 pf=0.92 status=variable vmaxpu=1.5 vminpu=0.93 daily="RU1_DU"
 
New "Load.BT_218318_M1" bus1="UC218318.1.4" phases=1 conn=delta model=2 kv=0.22 kw = 0.21726715318486173 pf=0.92 status=variable vmaxpu=1.5 vminpu=0.93 daily="RU5_DU" 
New "Load.BT_218318_M2" bus1="UC218318.1.4" phases=1 conn=delta model=3 kv=0.22 kw = 0.21726715318486173 pf=0.92 status=variable vmaxpu=1.5 vminpu=0.93 daily="RU5_DU"
 
New "Load.BT_218320_M1" bus1="UC218320.1.4" phases=1 conn=delta model=2 kv=0.22 kw = 0.059231679468940854 pf=0.92 status=variable vmaxpu=1.5 vminpu=0.93 daily="CO4_DU" 
New "Load.BT_218320_M2" bus1="UC218320.1.4" phases=1 conn=delta model=3 kv=0.22 kw = 0.059231679468940854 pf=0.92 status=variable vmaxpu=1.5 vminpu=0.93 daily="CO4_DU"
 
New "Load.BT_218323_M1" bus1="UC218323.1.4" phases=1 conn=delta model=2 kv=0.22 kw = 0.20839586569783336 pf=0.92 status=variable vmaxpu=1.5 vminpu=0.93 daily="RU4_DU" 
New "Load.BT_218323_M2" bus1="UC218323.1.4" phases=1 conn=delta model=3 kv=0.22 kw = 0.20839586569783336 pf=0.92 status=variable vmaxpu=1.5 vminpu=0.93 daily="RU4_DU"
 
New "Load.BT_223646_M1" bus1="UC223646.1.4" phases=1 conn=delta model=2 kv=0.22 kw = 0.34549973875962725 pf=0.92 status=variable vmaxpu=1.5 vminpu=0.93 daily="RU2_DU" 
New "Load.BT_223646_M2" bus1="UC223646.1.4" phases=1 conn=delta model=3 kv=0.22 kw = 0.34549973875962725 pf=0.92 status=variable vmaxpu=1.5 vminpu=0.93 daily="RU2_DU"
 
New "Load.BT_205687_M1" bus1="UC205687.1.4" phases=1 conn=delta model=2 kv=0.22 kw = 0.44200804567572427 pf=0.92 status=variable vmaxpu=1.5 vminpu=0.93 daily="RU2_DU" 
New "Load.BT_205687_M2" bus1="UC205687.1.4" phases=1 conn=delta model=3 kv=0.22 kw = 0.44200804567572427 pf=0.92 status=variable vmaxpu=1.5 vminpu=0.93 daily="RU2_DU"
 
New "Load.BT_205689_M1" bus1="UC205689.1.4" phases=1 conn=delta model=2 kv=0.22 kw = 0.3956840583559977 pf=0.92 status=variable vmaxpu=1.5 vminpu=0.93 daily="RU2_DU" 
New "Load.BT_205689_M2" bus1="UC205689.1.4" phases=1 conn=delta model=3 kv=0.22 kw = 0.3956840583559977 pf=0.92 status=variable vmaxpu=1.5 vminpu=0.93 daily="RU2_DU"
 
New "Load.BT_205691_M1" bus1="UC205691.1.2.4" phases=2 conn=delta model=2 kv=0.44 kw = 0.13112533216741337 pf=0.92 status=variable vmaxpu=1.5 vminpu=0.93 daily="RU6_DU" 
New "Load.BT_205691_M2" bus1="UC205691.1.2.4" phases=2 conn=delta model=3 kv=0.44 kw = 0.13112533216741337 pf=0.92 status=variable vmaxpu=1.5 vminpu=0.93 daily="RU6_DU"
 
New "Load.BT_223645_M1" bus1="UC223645.1.4" phases=1 conn=delta model=2 kv=0.22 kw = 0.04900606292169019 pf=0.92 status=variable vmaxpu=1.5 vminpu=0.93 daily="RU8_DU" 
New "Load.BT_223645_M2" bus1="UC223645.1.4" phases=1 conn=delta model=3 kv=0.22 kw = 0.04900606292169019 pf=0.92 status=variable vmaxpu=1.5 vminpu=0.93 daily="RU8_DU"
 
New "Load.BT_223633_M1" bus1="UC223633.1.4" phases=1 conn=delta model=2 kv=0.22 kw = 0.1616458836201734 pf=0.92 status=variable vmaxpu=1.5 vminpu=0.93 daily="RU6_DU" 
New "Load.BT_223633_M2" bus1="UC223633.1.4" phases=1 conn=delta model=3 kv=0.22 kw = 0.1616458836201734 pf=0.92 status=variable vmaxpu=1.5 vminpu=0.93 daily="RU6_DU"
 
New "Load.BT_223634_M1" bus1="UC223634.1.4" phases=1 conn=delta model=2 kv=0.22 kw = 0.07489429515007652 pf=0.92 status=variable vmaxpu=1.5 vminpu=0.93 daily="RU7_DU" 
New "Load.BT_223634_M2" bus1="UC223634.1.4" phases=1 conn=delta model=3 kv=0.22 kw = 0.07489429515007652 pf=0.92 status=variable vmaxpu=1.5 vminpu=0.93 daily="RU7_DU"
 
New "Load.BT_223644_M1" bus1="UC223644.1.4" phases=1 conn=delta model=2 kv=0.22 kw = 0.08575635224060742 pf=0.92 status=variable vmaxpu=1.5 vminpu=0.93 daily="RE5_DU" 
New "Load.BT_223644_M2" bus1="UC223644.1.4" phases=1 conn=delta model=3 kv=0.22 kw = 0.08575635224060742 pf=0.92 status=variable vmaxpu=1.5 vminpu=0.93 daily="RE5_DU"
 
New "Load.BT_217026_M1" bus1="UC217026.1.4" phases=1 conn=delta model=2 kv=0.22 kw = 0.10388563520817064 pf=0.92 status=variable vmaxpu=1.5 vminpu=0.93 daily="RU7_DU" 
New "Load.BT_217026_M2" bus1="UC217026.1.4" phases=1 conn=delta model=3 kv=0.22 kw = 0.10388563520817064 pf=0.92 status=variable vmaxpu=1.5 vminpu=0.93 daily="RU7_DU"
 
New "Load.BT_217031_M1" bus1="UC217031.1.4" phases=1 conn=delta model=2 kv=0.22 kw = 0.11790644727928005 pf=0.92 status=variable vmaxpu=1.5 vminpu=0.93 daily="RE2_DU" 
New "Load.BT_217031_M2" bus1="UC217031.1.4" phases=1 conn=delta model=3 kv=0.22 kw = 0.11790644727928005 pf=0.92 status=variable vmaxpu=1.5 vminpu=0.93 daily="RE2_DU"
 
New "Load.BT_218301_M1" bus1="UC218301.1.2.4" phases=2 conn=delta model=2 kv=0.44 kw = 0.14617340342786417 pf=0.92 status=variable vmaxpu=1.5 vminpu=0.93 daily="RU4_DU" 
New "Load.BT_218301_M2" bus1="UC218301.1.2.4" phases=2 conn=delta model=3 kv=0.44 kw = 0.14617340342786417 pf=0.92 status=variable vmaxpu=1.5 vminpu=0.93 daily="RU4_DU"
 
New "Load.BT_223630_M1" bus1="UC223630.2.4" phases=1 conn=delta model=2 kv=0.22 kw = 0.07981141393440258 pf=0.92 status=variable vmaxpu=1.5 vminpu=0.93 daily="RU3_DU" 
New "Load.BT_223630_M2" bus1="UC223630.2.4" phases=1 conn=delta model=3 kv=0.22 kw = 0.07981141393440258 pf=0.92 status=variable vmaxpu=1.5 vminpu=0.93 daily="RU3_DU"
 
New "Load.BT_223631_M1" bus1="UC223631.2.4" phases=1 conn=delta model=2 kv=0.22 kw = 0.09834399912556005 pf=0.92 status=variable vmaxpu=1.5 vminpu=0.93 daily="RU6_DU" 
New "Load.BT_223631_M2" bus1="UC223631.2.4" phases=1 conn=delta model=3 kv=0.22 kw = 0.09834399912556005 pf=0.92 status=variable vmaxpu=1.5 vminpu=0.93 daily="RU6_DU"
 
New "Load.BT_222260_M1" bus1="UC222260.1.4" phases=1 conn=delta model=2 kv=0.22 kw = 0.3491040531995501 pf=0.92 status=variable vmaxpu=1.5 vminpu=0.93 daily="RU7_DU" 
New "Load.BT_222260_M2" bus1="UC222260.1.4" phases=1 conn=delta model=3 kv=0.22 kw = 0.3491040531995501 pf=0.92 status=variable vmaxpu=1.5 vminpu=0.93 daily="RU7_DU"
 
New "Load.BT_222263_M1" bus1="UC222263.1.4" phases=1 conn=delta model=2 kv=0.22 kw = 0.49219236527209465 pf=0.92 status=variable vmaxpu=1.5 vminpu=0.93 daily="RU2_DU" 
New "Load.BT_222263_M2" bus1="UC222263.1.4" phases=1 conn=delta model=3 kv=0.22 kw = 0.49219236527209465 pf=0.92 status=variable vmaxpu=1.5 vminpu=0.93 daily="RU2_DU"
 
New "Load.BT_205680_M1" bus1="UC205680.1.2.3.4" phases=3 conn=delta model=2 kv=0.38 kw = 0.7894379505736735 pf=0.92 status=variable vmaxpu=1.5 vminpu=0.93 daily="RU2_DU" 
New "Load.BT_205680_M2" bus1="UC205680.1.2.3.4" phases=3 conn=delta model=3 kv=0.38 kw = 0.7894379505736735 pf=0.92 status=variable vmaxpu=1.5 vminpu=0.93 daily="RU2_DU"
 
New "Load.BT_205681_M1" bus1="UC205681.1.2.4" phases=2 conn=delta model=2 kv=0.44 kw = 0.5768713692496104 pf=0.92 status=variable vmaxpu=1.5 vminpu=0.93 daily="RU8_DU" 
New "Load.BT_205681_M2" bus1="UC205681.1.2.4" phases=2 conn=delta model=3 kv=0.44 kw = 0.5768713692496104 pf=0.92 status=variable vmaxpu=1.5 vminpu=0.93 daily="RU8_DU"
 
New "Load.BT_205675_M1" bus1="UC205675.2.4" phases=1 conn=delta model=2 kv=0.22 kw = 0.022220504302997223 pf=0.92 status=variable vmaxpu=1.5 vminpu=0.93 daily="RU5_DU" 
New "Load.BT_205675_M2" bus1="UC205675.2.4" phases=1 conn=delta model=3 kv=0.22 kw = 0.022220504302997223 pf=0.92 status=variable vmaxpu=1.5 vminpu=0.93 daily="RU5_DU"
 
New "Load.BT_238952_M1" bus1="UC238952.2.4" phases=1 conn=delta model=2 kv=0.22 kw = 0.0008440582841723489 pf=0.92 status=variable vmaxpu=1.5 vminpu=0.93 daily="RE3_DU" 
New "Load.BT_238952_M2" bus1="UC238952.2.4" phases=1 conn=delta model=3 kv=0.22 kw = 0.0008440582841723489 pf=0.92 status=variable vmaxpu=1.5 vminpu=0.93 daily="RE3_DU"
 
New "Load.BT_205735_M1" bus1="UC205735.3.1.4" phases=2 conn=delta model=2 kv=0.38 kw = 0.7999381549079 pf=0.92 status=variable vmaxpu=1.5 vminpu=0.93 daily="RU5_DU" 
New "Load.BT_205735_M2" bus1="UC205735.3.1.4" phases=2 conn=delta model=3 kv=0.38 kw = 0.7999381549079 pf=0.92 status=variable vmaxpu=1.5 vminpu=0.93 daily="RU5_DU"
 
New "Load.BT_238959_M1" bus1="UC238959.1.4" phases=1 conn=delta model=2 kv=0.22 kw = 0.06340252353697134 pf=0.92 status=variable vmaxpu=1.5 vminpu=0.93 daily="RE2_DU" 
New "Load.BT_238959_M2" bus1="UC238959.1.4" phases=1 conn=delta model=3 kv=0.22 kw = 0.06340252353697134 pf=0.92 status=variable vmaxpu=1.5 vminpu=0.93 daily="RE2_DU"
 
New "Load.BT_221689_M1" bus1="UC221689.1.4" phases=1 conn=delta model=2 kv=0.22 kw = 0.42276615716045346 pf=0.92 status=variable vmaxpu=1.5 vminpu=0.93 daily="RU6_DU" 
New "Load.BT_221689_M2" bus1="UC221689.1.4" phases=1 conn=delta model=3 kv=0.22 kw = 0.42276615716045346 pf=0.92 status=variable vmaxpu=1.5 vminpu=0.93 daily="RU6_DU"
 
New "Load.BT_238205_M1" bus1="UC238205.2.4" phases=1 conn=delta model=2 kv=0.22 kw = 0.03034660310454433 pf=0.92 status=variable vmaxpu=1.5 vminpu=0.93 daily="RE1_DU" 
New "Load.BT_238205_M2" bus1="UC238205.2.4" phases=1 conn=delta model=3 kv=0.22 kw = 0.03034660310454433 pf=0.92 status=variable vmaxpu=1.5 vminpu=0.93 daily="RE1_DU"
 
New "Load.BT_235961_M1" bus1="UC235961.1.4" phases=1 conn=delta model=2 kv=0.22 kw = 0.08817048197464004 pf=0.92 status=variable vmaxpu=1.5 vminpu=0.93 daily="RU6_DU" 
New "Load.BT_235961_M2" bus1="UC235961.1.4" phases=1 conn=delta model=3 kv=0.22 kw = 0.08817048197464004 pf=0.92 status=variable vmaxpu=1.5 vminpu=0.93 daily="RU6_DU"
 
New "Load.BT_237573_M1" bus1="UC237573.1.4" phases=1 conn=delta model=2 kv=0.22 kw = 0.056388498975393136 pf=0.92 status=variable vmaxpu=1.5 vminpu=0.93 daily="RU3_DU" 
New "Load.BT_237573_M2" bus1="UC237573.1.4" phases=1 conn=delta model=3 kv=0.22 kw = 0.056388498975393136 pf=0.92 status=variable vmaxpu=1.5 vminpu=0.93 daily="RU3_DU"
 
New "Load.BT_237359_M1" bus1="UC237359.2.4" phases=1 conn=delta model=2 kv=0.22 kw = 0.46710020547390946 pf=0.92 status=variable vmaxpu=1.5 vminpu=0.93 daily="RU2_DU" 
New "Load.BT_237359_M2" bus1="UC237359.2.4" phases=1 conn=delta model=3 kv=0.22 kw = 0.46710020547390946 pf=0.92 status=variable vmaxpu=1.5 vminpu=0.93 daily="RU2_DU"
 
New "Load.BT_237167_M1" bus1="UC237167.2.4" phases=1 conn=delta model=2 kv=0.22 kw = 0.16788825473375682 pf=0.92 status=variable vmaxpu=1.5 vminpu=0.93 daily="RU5_DU" 
New "Load.BT_237167_M2" bus1="UC237167.2.4" phases=1 conn=delta model=3 kv=0.22 kw = 0.16788825473375682 pf=0.92 status=variable vmaxpu=1.5 vminpu=0.93 daily="RU5_DU"
 
New "Load.BT_236486_M1" bus1="UC236486.1.4" phases=1 conn=delta model=2 kv=0.22 kw = 0.16051549282562674 pf=0.92 status=variable vmaxpu=1.5 vminpu=0.93 daily="RU6_DU" 
New "Load.BT_236486_M2" bus1="UC236486.1.4" phases=1 conn=delta model=3 kv=0.22 kw = 0.16051549282562674 pf=0.92 status=variable vmaxpu=1.5 vminpu=0.93 daily="RU6_DU"
 
New "Load.BT_2836677_M1" bus1="UC2836677.1.4" phases=1 conn=delta model=2 kv=0.22 kw = 0.31268691440815427 pf=0.92 status=variable vmaxpu=1.5 vminpu=0.93 daily="RU2_DU" 
New "Load.BT_2836677_M2" bus1="UC2836677.1.4" phases=1 conn=delta model=3 kv=0.22 kw = 0.31268691440815427 pf=0.92 status=variable vmaxpu=1.5 vminpu=0.93 daily="RU2_DU"
 
New "Load.BT_2836674_M1" bus1="UC2836674.2.4" phases=1 conn=delta model=2 kv=0.22 kw = 0.05651953972733336 pf=0.92 status=variable vmaxpu=1.5 vminpu=0.93 daily="RU6_DU" 
New "Load.BT_2836674_M2" bus1="UC2836674.2.4" phases=1 conn=delta model=3 kv=0.22 kw = 0.05651953972733336 pf=0.92 status=variable vmaxpu=1.5 vminpu=0.93 daily="RU6_DU"
 
New "Load.BT_235585_M1" bus1="UC235585.1.2.4" phases=2 conn=delta model=2 kv=0.44 kw = 0.8432715327318137 pf=0.92 status=variable vmaxpu=1.5 vminpu=0.93 daily="RU6_DU" 
New "Load.BT_235585_M2" bus1="UC235585.1.2.4" phases=2 conn=delta model=3 kv=0.44 kw = 0.8432715327318137 pf=0.92 status=variable vmaxpu=1.5 vminpu=0.93 daily="RU6_DU"
 
New "Load.BT_2805422_M1" bus1="UC2805422.1.2.4" phases=2 conn=delta model=2 kv=0.44 kw = 0.021631547503859764 pf=0.92 status=variable vmaxpu=1.5 vminpu=0.93 daily="CO3_DU" 
New "Load.BT_2805422_M2" bus1="UC2805422.1.2.4" phases=2 conn=delta model=3 kv=0.44 kw = 0.021631547503859764 pf=0.92 status=variable vmaxpu=1.5 vminpu=0.93 daily="CO3_DU"
 
New "Load.BT_2835970_M1" bus1="UC2835970.1.4" phases=1 conn=delta model=2 kv=0.22 kw = 0.23161993659863278 pf=0.92 status=variable vmaxpu=1.5 vminpu=0.93 daily="RU2_DU" 
New "Load.BT_2835970_M2" bus1="UC2835970.1.4" phases=1 conn=delta model=3 kv=0.22 kw = 0.23161993659863278 pf=0.92 status=variable vmaxpu=1.5 vminpu=0.93 daily="RU2_DU"
 
New "Load.BT_236232_M1" bus1="UC236232.1.2.3.4" phases=3 conn=delta model=2 kv=0.38 kw = 0.30970298668023616 pf=0.92 status=variable vmaxpu=1.5 vminpu=0.93 daily="RU3_DU" 
New "Load.BT_236232_M2" bus1="UC236232.1.2.3.4" phases=3 conn=delta model=3 kv=0.38 kw = 0.30970298668023616 pf=0.92 status=variable vmaxpu=1.5 vminpu=0.93 daily="RU3_DU"
 
New "Load.BT_205652_M1" bus1="UC205652.1.4" phases=1 conn=delta model=2 kv=0.22 kw = 0.24936343717807996 pf=0.92 status=variable vmaxpu=1.5 vminpu=0.93 daily="RU5_DU" 
New "Load.BT_205652_M2" bus1="UC205652.1.4" phases=1 conn=delta model=3 kv=0.22 kw = 0.24936343717807996 pf=0.92 status=variable vmaxpu=1.5 vminpu=0.93 daily="RU5_DU"
 
New "Load.BT_205761_M1" bus1="UC205761.1.2.3.4" phases=3 conn=delta model=2 kv=0.38 kw = 1.1523425652728867 pf=0.92 status=variable vmaxpu=1.5 vminpu=0.93 daily="RU8_DU" 
New "Load.BT_205761_M2" bus1="UC205761.1.2.3.4" phases=3 conn=delta model=3 kv=0.38 kw = 1.1523425652728867 pf=0.92 status=variable vmaxpu=1.5 vminpu=0.93 daily="RU8_DU"
 
New "Load.BT_225860_M1" bus1="UC225860.2.4" phases=1 conn=delta model=2 kv=0.22 kw = 0.18003691677632336 pf=0.92 status=variable vmaxpu=1.5 vminpu=0.93 daily="RE8_DU" 
New "Load.BT_225860_M2" bus1="UC225860.2.4" phases=1 conn=delta model=3 kv=0.22 kw = 0.18003691677632336 pf=0.92 status=variable vmaxpu=1.5 vminpu=0.93 daily="RE8_DU"
 
New "Load.BT_235692_M1" bus1="UC235692.1.4" phases=1 conn=delta model=2 kv=0.22 kw = 0.12405280824930819 pf=0.92 status=variable vmaxpu=1.5 vminpu=0.93 daily="RE7_DU" 
New "Load.BT_235692_M2" bus1="UC235692.1.4" phases=1 conn=delta model=3 kv=0.22 kw = 0.12405280824930819 pf=0.92 status=variable vmaxpu=1.5 vminpu=0.93 daily="RE7_DU"
 
New "Load.BT_235691_M1" bus1="UC235691.2.4" phases=1 conn=delta model=2 kv=0.22 kw = 0.054321197219814384 pf=0.92 status=variable vmaxpu=1.5 vminpu=0.93 daily="RU4_DU" 
...